/*--------------------------------*- C++ -*----------------------------------*\
  =========                 |
  \\      /  F ield         | OpenFOAM: The Open Source CFD Toolbox
   \\    /   O peration     | Website:  https://openfoam.org
    \\  /    A nd           | Version:  9
     \\/     M anipulation  |
\*---------------------------------------------------------------------------*/
FoamFile
{
    format      ascii;
    class       polyBoundaryMesh;
    location    "constant/polyMesh";
    object      boundary;
}
// * * * * * * * * * * * * * * * * * * * * * * * * * * * * * * * * * * * * * //

3
(
    numericalBoundary
    {
        type            patch;
        nFaces          12500;
        startFace       388965;
    }
    outlet
    {
        type            patch;
        nFaces          2500;
        startFace       401465;
    }
    wall
    {
        type            wall;
        inGroups        List<word> 1(wall);
        nFaces          2106;
        startFace       403965;
    }
)

// ************************************************************************* //
