/*--------------------------------*- C++ -*----------------------------------*\
  =========                 |
  \\      /  F ield         | OpenFOAM: The Open Source CFD Toolbox
   \\    /   O peration     | Website:  https://openfoam.org
    \\  /    A nd           | Version:  9
     \\/     M anipulation  |
\*---------------------------------------------------------------------------*/
FoamFile
{
    format      ascii;
    class       polyBoundaryMesh;
    object      boundary;
}
// * * * * * * * * * * * * * * * * * * * * * * * * * * * * * * * * * * * * * //

4
(
    numericalBoundary
    {
        type patch;
        nFaces 134;
        startFace 21254;
    }

    outlet
    {
        type    patch;
        nFaces 160;
        startFace 21388;
    }

    walls
    {
        type wall;
        physicalType wall;
        nFaces 78;
        startFace 21548;
    }

    frontAndBack
    {
        type empty;
        physicalType empty;
        nFaces 21440;
        startFace 21626;
    }
)




// ************************************************************************* //
