/*--------------------------------*- C++ -*----------------------------------*\
  =========                 |
  \\      /  F ield         | OpenFOAM: The Open Source CFD Toolbox
   \\    /   O peration     | Website:  https://openfoam.org
    \\  /    A nd           | Version:  9
     \\/     M anipulation  | Author: 2023, by Flavio A. C. Martins f.m.martins@tudelft.nl
\*---------------------------------------------------------------------------*/



FoamFile
{
    version   2.0;
    format    ascii;
    class     dictionary;
    location  "system";
    object    meshDict;
}

// * * * * * * * * * * * * * * * * * * * * * * * * * * * * * * * * * * * * * //

surfaceFile "./meshing/Torus.stl"

// * * * * * * * * * * * * * * * * * * * * * * * * * * * * * * * * * * * * * //

minCellSize         0.04;  // =================

maxCellSize         0.04; // =================

boundaryCellSize    0.04; // =================


renameBoundary
{
    defaultType     patch;

    newPatchNames
    {
        "domain" { newName numericalBoundary; type  patch; }
        
    }
}

// ************************************************************************* //
